72
Lattice="8.956369831609006 0.0 0.0 0.0 8.956369831609006 0.0 0.0 0.0 8.956369831609006" Properties=species:S:1:pos:R:3:momenta:R:3:forces:R:3 water=T with=T unit=T cell:=T ABC=T angstrom=T 12.42=T energy=-331.8973126407019 dipole="-2.0404079304426017 -3.4519981839809155 17.485478163475975" pbc="T T T"
O        3.08797109       5.34829591       3.01980248      -0.17850456      -0.67952694      -0.46826372      -0.50827830       1.56561656       0.39589700
O        3.03987733       9.51667279       3.22580100       0.59846802       0.69960453      -0.04080864       0.24821060      -1.19930309       2.08338628
O        0.68938206       5.22044792       0.76287597      -0.41637461      -0.25459849       0.24041649       0.06003407       0.98203109       0.41381279
O        3.84902878       2.83869938       2.54956734      -0.42163643      -0.29846414      -1.45788029       0.38435862       0.46532364       0.17998367
O        6.44353348       2.82726465       3.09116541      -0.18005123      -0.07825566       0.15204149      -0.22025446       0.18313267      -0.10896572
O        4.07683858       5.85412460       5.32471006       0.24468572       0.58862702       1.22992686       0.01643531       0.48135568       0.86866624
O        1.78969249       8.71238896       5.36136369       0.47420611       1.33725272      -0.29359506       0.23850051       0.85430406       0.49761353
O        6.12353714       7.78114776       1.95722393      -0.50006173       0.45451433       0.27945191      -0.10127622      -0.99055037      -0.12362195
O        6.23459865       1.24115532       9.96314857       0.85838437       0.12325537      -1.29934961       1.06205834       0.67371293      -1.30313163
O        2.24174031       6.77624298       7.32120293       0.71098753      -0.47790616      -0.26750114       0.09201777       0.55220687      -0.69193848
O        1.70490456       9.51354509       0.73192028       0.11314903      -0.53546306       0.65495335      -0.50779153       1.10589846       0.51476485
O        1.34890341       3.98654609       5.83048014       0.76419867       0.50529925      -0.58569553       0.47452901       0.01905847      -0.57841162
O        4.76058431       2.96385464      -0.30694956       0.76271715      -1.41900416       0.16411759       0.66778090       0.15042867       0.23956038
O        1.07714765       6.47513680       4.48938155      -0.96893650      -0.03247451       0.06415407      -1.79307412      -1.36140675      -1.18544030
O        2.04328043       3.13234562      -0.34481286       0.72190235       0.51909596       0.02645245      -0.19494040       0.20583058      -0.04247768
O        5.03229848       8.19378901       4.66085487      -0.42589326       0.37636032      -0.35254428      -0.93333685      -1.37137931      -0.77164418
O       -0.75462575       0.43671704      -0.26303978      -0.66085848      -0.09348855       1.15928731       0.01288223      -0.62650735      -0.81232753
O        5.99497618       4.84529424       7.67325431       0.42055037      -0.21611149      -0.55021465       1.07663136       0.17981695      -0.08577878
O        3.90733231       2.33728344       6.29302540      -0.29270680      -0.02339436      -0.01755939      -0.54524023      -1.20200367      -0.69737438
O       -0.06246949      10.46630672       6.23668413       0.13241853      -1.05349596      -0.22862477      -0.16135596      -0.37474106       0.31699822
O       -0.57701150       5.96140278      -1.28898334      -0.30382127       0.23329099      -1.07757486       0.57988681      -0.06549216      -0.05226840
O        3.58298620       7.18267497       1.03170374      -0.14355392       0.45367596      -0.29812712      -0.19917803      -0.21634517      -0.33744644
O        8.01139983       5.82909937       2.53625049      -0.75732231      -0.24799200       0.02909717      -1.10122422      -0.15259198       0.90513435
O       -2.62441172      10.30200338       5.33278453       0.21961145       0.63205944      -0.38944133       0.19946477       0.33466633       0.26195512
H        2.17753800       5.63542929       3.38566054      -0.05177295       0.32765765       0.19051026       0.22420748       0.06538976      -0.02197596
H        3.08129837       4.41599153       2.74170111       0.03839272       0.01967646      -0.06742203       0.07440297      -1.45315135      -0.21943837
H        3.44894133      10.39007984       3.00649231      -0.07358760      -0.03571781       0.08728256       0.15000825       1.20966061      -0.54826002
H        2.53971852       9.26441977       2.43844740      -0.06947586       0.19936320      -0.04178791      -0.70638272      -0.27998161      -1.37770552
H        0.87263380       4.32592077       0.41817733      -0.38070881      -0.04226270      -0.08933456       0.35600844      -1.03351703      -0.09289218
H        0.05331153       5.23586794       1.57393451       0.49437234      -0.13037705       0.38743580       0.19975725       0.08929316      -0.81456560
H        4.21597411       2.91098898       1.63386425      -0.07382225       0.03026908      -0.17837327      -0.19238637      -0.15013764      -0.99682033
H        4.78670906       2.86670259       2.98170488       0.35658510      -0.07350196      -0.02573039       0.43671182       0.26629517       0.40783903
H        6.49462957       2.27302356       2.22917944       0.01628126      -0.04321123       0.05357553       0.16431422      -0.13830271       0.22143503
H        6.52471790       2.14713448       3.84317431      -0.05629803       0.21110829       0.23896806      -0.02118516       0.21630016       0.05537431
H        3.73088958       5.46675718       4.41548001      -0.15606434       0.15647782       0.19242540      -0.32993517       0.41337192       0.77222801
H        3.35542137       6.09453737       6.03822895      -0.07385083      -0.02863655       0.17390030       0.42504209      -0.55962284      -1.22319165
H        2.24102904       9.26391713       4.59917004       0.09349639      -0.20070583       0.14066992      -0.14244860      -0.58074738       0.00731886
H        1.09714169       9.32471644       5.79288879      -0.37892494       0.11881086      -0.32185145      -0.07642404       0.05310001      -0.49751678
H        5.89051956       7.63095189       2.90872222       0.06584377      -0.19285320       0.03653154      -0.27809183       0.47869217       0.73380986
H        5.27462403       7.45007250       1.50208690      -0.05764111      -0.18238257      -0.21091596      -0.10995222      -0.09105797      -0.11776418
H        7.03985799       0.75493919       9.40328599      -0.02054487       0.02517823       0.11023765      -0.69453372       1.01628340       0.60139874
H        5.77915543       0.49926633      10.39626792       0.00014892       0.21359396       0.16728219      -0.30951689      -0.94695777       0.49781285
H        2.13645076       7.53198439       6.64508468      -0.08617909       0.00120708      -0.06474542       0.33728821      -0.10805671       0.45892713
H        1.35414219       6.33236255       7.19038036      -0.00980333      -0.29652817      -0.00291138      -0.16345726      -0.23348742       0.26007048
H        1.82573200      10.36878513       0.18985392       0.47564881       0.13210265      -0.07403845       0.52230661      -0.52728122      -0.04676729
H        1.86203299       8.70073118       0.21248499      -0.09414022       0.05027269       0.08433191       0.42281646      -0.19442350      -0.54747783
H        2.25113212       3.59015223       5.58069016       0.19015977      -0.17501110      -0.17042441      -0.70478062       0.41342259       0.06516511
H        1.21488158       4.84521845       5.26525767       0.07487613      -0.01349526      -0.16515106       0.31950100      -0.57186518       0.70670304
H        5.42688659       3.73907065      -0.62775341       0.07448998       0.34454729      -0.00915358      -0.74749090      -0.10407156      -0.02476352
H        5.42889907       2.24075076      -0.02537727       0.17788192      -0.04370628       0.13571468      -0.49125710      -0.24949013       0.38919414
H        1.30072957       7.43827109       4.84013556      -0.17821608       0.22772917      -0.07872097      -0.51497649      -0.20138550      -0.51557511
H        0.14763896       6.37935927       3.98093907      -0.08132180       0.08950154      -0.17692137       1.93169303       0.66378811       0.98435557
H        2.10682472       3.43647179      -1.30912715       0.34888344      -0.07370572       0.13983356      -0.13947550      -0.09721713       0.57016402
H        2.88440423       3.46399458       0.09944376       0.11782429       0.49369271       0.01669870      -0.21733378      -0.39002579      -0.72027287
H        4.53666380       7.22891231       4.84609518       0.14053439       0.09982083      -0.16669822       0.91049509       0.86308482       0.45764027
H        4.39604036       8.61110624       3.99637509      -0.07817496      -0.17605188       0.12574205      -0.00832566       0.08731372       0.25192070
H        0.08579263       0.70160463       0.18220771      -0.00580087       0.07582387       0.03147565       0.64436120      -0.35006966       1.33138518
H       -0.48589161       0.77073789      -1.16126382      -0.17701873      -0.43701872      -0.15709440      -0.58646771       0.38670830      -0.67715357
H        5.42408084       5.27150448       6.98700866       0.02030111      -0.15692682       0.26289474       0.19213743      -0.07132672      -0.40037521
H        7.00860104       4.99177281       7.46376828       0.02091692       0.09893758       0.00499951      -0.99092065       0.59074018       0.28500063
H        4.20764997       2.60394717       7.24503498      -0.00995205      -0.04247443      -0.03873700       0.06836001      -0.33900449       0.37020944
H        3.57532601       1.36845137       6.34486350       0.14083676      -0.07743415       0.18527525       0.45982902       1.40326716       0.13467886
H       -1.03095327      10.37181706       5.98296903       0.01736597      -0.09794959      -0.36259890      -0.61296225      -0.29408531      -0.47319653
H        0.10993036      11.41274275       6.00410350      -0.29066808      -0.02916834      -0.38781227       0.72142254       0.56524244       0.04082937
H       -0.06194144       5.73888170      -0.37824590      -0.14466290       0.38287127      -0.14575120      -0.26901130      -0.19901366      -0.22021032
H       -0.95069935       6.85181307      -1.09614586      -0.18099930       0.15531471       0.34709355      -0.15156552       0.25589540      -0.01404337
H        3.24386249       6.88070154       0.13428932       0.15377185       0.18204546      -0.04837828       0.11970446       0.09638037       0.38035338
H        3.20375872       6.50911634       1.68669613      -0.00520015      -0.01185177       0.01952083       0.27449385       0.04876556      -0.21199414
H        7.44566895       5.07157165       2.83325609      -0.01322051      -0.04222321      -0.09704284       0.18531981      -0.71318908       0.31090034
H        7.24393957       6.42993804       2.24014478      -0.08898483       0.01243563       0.01101896       0.44998954       0.76042301      -0.51919602
H       -3.37857523      10.85280179       5.73392086      -0.15393402      -0.15924942       0.52636602       0.04287592      -0.21807838      -0.09586985
H       -3.08020723       9.39925404       5.15106041      -0.19867217       0.03211807       0.15190257      -0.00288295      -0.02248545       0.01769303
